# KPP parameters
 &KPP_PARM01
 minKPPhbl = 5.0,
 Ricr = 0.3,
 concv = 1.8,
 cstar = 10.0,
 &
